L24/1726539/GD.dss
! GERACAO DISTRIBUIDA — gerada de UGBT_tab e UGMT_tab
! Unidades com potencia nula sao omitidas (gerariam NaN).
! 268 unidades descartadas por potencia nula.
! 1741 unidades de BT realocadas para o secundario do transformador (rede secundaria nao modelada).
! 0 unidades descartadas por ponto de conexao ausente da rede.
! irradiance=1 — ver o docstring: 1,0 e meio-dia de ceu claro, nao a ponta de carga.
! 6 barras tiveram a GD limitada a capacidade do transformador (103 kW cortados).
! inversores em pf=1 — ver o docstring de _pv: 0,92 e capacidade exigida pelo PRODIST, nao despacho.
! 0 unidades de MT ligadas pelo PAC da carga (casadas por CEG_GD): o PAC da UGMT nao existe na SSDMT.
New PVSystem.GD_18924cd69bf419f2d0581d3b1ad266a845802ad5539ce1be32b9535f057237e2 phases=3 bus1=node_127296839.1.2.3 conn=wye kv=13.8000 pf=1 pmpp=14.20 kva=14.20 irradiance=1 temperature=25 %cutin=20 %cutout=20 effcurve=MyEff P-TCurve=MyPvsT Daily=IRRAD_DIA TDaily=TEMP_DIA
New PVSystem.GD_c07c26e49d12fe4241833640233b24bf74d1ae3e4af255edd136994d4c30fe6e phases=3 bus1=node_115624333.1.2.3 conn=wye kv=13.8000 pf=1 pmpp=12.33 kva=12.33 irradiance=1 temperature=25 %cutin=20 %cutout=20 effcurve=MyEff P-TCurve=MyPvsT Daily=IRRAD_DIA TDaily=TEMP_DIA
New PVSystem.GD_0c185baac48efdb4ea589d7ce2c356ec95c2a6f48ae733f7c0160e9e9a8e1629 phases=3 bus1=node_123950613.1.2.3 conn=wye kv=13.8000 pf=1 pmpp=15.32 kva=15.32 irradiance=1 temperature=25 %cutin=20 %cutout=20 effcurve=MyEff P-TCurve=MyPvsT Daily=IRRAD_DIA TDaily=TEMP_DIA
New PVSystem.GD_d544926c017825253b0eda43c9d7caa50c98fbb3afba90ab044862526c516571 phases=3 bus1=node_123303601.1.2.3 conn=wye kv=13.8000 pf=1 pmpp=15.09 kva=15.09 irradiance=1 temperature=25 %cutin=20 %cutout=20 effcurve=MyEff P-TCurve=MyPvsT Daily=IRRAD_DIA TDaily=TEMP_DIA
New PVSystem.GD_cbf91df41585e4ff7aaad05aefa248612031abd91e733c2d203389b46e5d02b0 phases=3 bus1=node_110145636.1.2.3 conn=wye kv=13.8000 pf=1 pmpp=15.69 kva=15.69 irradiance=1 temperature=25 %cutin=20 %cutout=20 effcurve=MyEff P-TCurve=MyPvsT Daily=IRRAD_DIA TDaily=TEMP_DIA
New PVSystem.GD_f76f6b0d5d5e11661230cd8c669ce45dd2b49599d78e7eef65199fa0c9cd6680 phases=3 bus1=node_110149596.1.2.3 conn=wye kv=13.8000 pf=1 pmpp=30.26 kva=30.26 irradiance=1 temperature=25 %cutin=20 %cutout=20 effcurve=MyEff P-TCurve=MyPvsT Daily=IRRAD_DIA TDaily=TEMP_DIA
New PVSystem.GD_77d61dc646cabe655790e58fac85a0bb93dcb4e14be8b1d004cb2af1d8015829 phases=3 bus1=node_127222101.1.2.3 conn=wye kv=13.8000 pf=1 pmpp=4.96 kva=4.96 irradiance=1 temperature=25 %cutin=20 %cutout=20 effcurve=MyEff P-TCurve=MyPvsT Daily=IRRAD_DIA TDaily=TEMP_DIA
New PVSystem.GD_37c55fe49fee559416c50042bbb03fb0f1c9d960c59479ca0ea743b97d958ce0 phases=3 bus1=node_115954633.1.2.3 conn=wye kv=13.8000 pf=1 pmpp=18.43 kva=18.43 irradiance=1 temperature=25 %cutin=20 %cutout=20 effcurve=MyEff P-TCurve=MyPvsT Daily=IRRAD_DIA TDaily=TEMP_DIA
New PVSystem.GD_e09615f683913f190750d621a5bec5ba0e10c9fe1d30e267341aaa2ae89b4ef1 phases=3 bus1=node_123952218.1.2.3 conn=wye kv=13.8000 pf=1 pmpp=44.05 kva=44.05 irradiance=1 temperature=25 %cutin=20 %cutout=20 effcurve=MyEff P-TCurve=MyPvsT Daily=IRRAD_DIA TDaily=TEMP_DIA
New PVSystem.GD_bed4a4e0c59d64cfdd375869d82bd6588da32fcfc01ce015f8f425a1a678fe0b phases=3 bus1=node_1754013228.1.2.3 conn=wye kv=13.8000 pf=1 pmpp=10.06 kva=10.06 irradiance=1 temperature=25 %cutin=20 %cutout=20 effcurve=MyEff P-TCurve=MyPvsT Daily=IRRAD_DIA TDaily=TEMP_DIA
New PVSystem.GD_9b0e52d87850bde8fbe4d6319ea36272e3f2d9ba3a60bdb853698e6d8174baa1 phases=3 bus1=node_120388904.1.2.3 conn=wye kv=13.8000 pf=1 pmpp=17.57 kva=17.57 irradiance=1 temperature=25 %cutin=20 %cutout=20 effcurve=MyEff P-TCurve=MyPvsT Daily=IRRAD_DIA TDaily=TEMP_DIA
New PVSystem.GD_ec016a8a7a17d7e8b92115a5cf85fbda65b940276dd8c15934862cba325bddfe phases=3 bus1=node_683622190.1.2.3 conn=wye kv=13.8000 pf=1 pmpp=86.50 kva=86.50 irradiance=1 temperature=25 %cutin=20 %cutout=20 effcurve=MyEff P-TCurve=MyPvsT Daily=IRRAD_DIA TDaily=TEMP_DIA
New PVSystem.GD_8dd0249cc3589f53ca2e9891227bac4210fee2b5d7706651c59d5ad9282d6002 phases=3 bus1=node_124225595.1.2.3 conn=wye kv=13.8000 pf=1 pmpp=122.55 kva=122.55 irradiance=1 temperature=25 %cutin=20 %cutout=20 effcurve=MyEff P-TCurve=MyPvsT Daily=IRRAD_DIA TDaily=TEMP_DIA
New PVSystem.GD_994f857d58ed1b80150e01f1f9689d7f632a7e9a687748fe12f418c54a7453d5 phases=3 bus1=node_115624088.1.2.3 conn=wye kv=13.8000 pf=1 pmpp=14.20 kva=14.20 irradiance=1 temperature=25 %cutin=20 %cutout=20 effcurve=MyEff P-TCurve=MyPvsT Daily=IRRAD_DIA TDaily=TEMP_DIA
New PVSystem.GD_852c5073e5ae224f0882d90341ee4d81cd7c41660f20653cb81018d4f480855b phases=3 bus1=node_2289336513.1.2.3 conn=wye kv=13.8000 pf=1 pmpp=2689.24 kva=2689.24 irradiance=1 temperature=25 %cutin=20 %cutout=20 effcurve=MyEff P-TCurve=MyPvsT Daily=IRRAD_DIA TDaily=TEMP_DIA
New PVSystem.GD_a351ecc9bd1c6eb232cb0cfd3d8676212871bd95b8d7f7336003cf11eda9642f phases=3 bus1=node_1653183250.1.2.3 conn=wye kv=13.8000 pf=1 pmpp=77.12 kva=77.12 irradiance=1 temperature=25 %cutin=20 %cutout=20 effcurve=MyEff P-TCurve=MyPvsT Daily=IRRAD_DIA TDaily=TEMP_DIA
New PVSystem.GD_844b5f171db6bcebe0bc19eaaba102e9e106ca8e67baa161b82e32cd8162bfd1 phases=3 bus1=node_1402258071.1.2.3 conn=wye kv=13.8000 pf=1 pmpp=12.31 kva=12.31 irradiance=1 temperature=25 %cutin=20 %cutout=20 effcurve=MyEff P-TCurve=MyPvsT Daily=IRRAD_DIA TDaily=TEMP_DIA
New PVSystem.GD_6dfbb53ce12219045a59242b386af734ee7f3ebd1a392c94c23bdbc9785311da phases=3 bus1=node_2149361754.1.2.3 conn=wye kv=13.8000 pf=1 pmpp=3.69 kva=3.69 irradiance=1 temperature=25 %cutin=20 %cutout=20 effcurve=MyEff P-TCurve=MyPvsT Daily=IRRAD_DIA TDaily=TEMP_DIA
New PVSystem.GD_e2e416e53f4b9950fdbd24c6bfe5d3fe0ec83b82e3d98f531895140b7e1a9c0d phases=3 bus1=node_2646216258.1.2.3 conn=wye kv=13.8000 pf=1 pmpp=202.87 kva=202.87 irradiance=1 temperature=25 %cutin=20 %cutout=20 effcurve=MyEff P-TCurve=MyPvsT Daily=IRRAD_DIA TDaily=TEMP_DIA
New PVSystem.GD_26605daf422a4111c8c18b3fc2a97f312669022a4f8394964b84cdee8b3a49de phases=3 bus1=node_127453000.1.2.3 conn=wye kv=13.8000 pf=1 pmpp=13.82 kva=13.82 irradiance=1 temperature=25 %cutin=20 %cutout=20 effcurve=MyEff P-TCurve=MyPvsT Daily=IRRAD_DIA TDaily=TEMP_DIA
New PVSystem.GD_7b4bf30e972787dc160402e1299301fc34414d17bc93f4fced39d5851b49e3b1 phases=3 bus1=node_2797309418.1.2.3 conn=wye kv=13.8000 pf=1 pmpp=3.74 kva=3.74 irradiance=1 temperature=25 %cutin=20 %cutout=20 effcurve=MyEff P-TCurve=MyPvsT Daily=IRRAD_DIA TDaily=TEMP_DIA
New PVSystem.GD_f0d3d2059dfacb78a6597d5fa36bb57ff2e61b0f72d24d0ad0b349442ac075a7 phases=3 bus1=node_426468456.1.2.3 conn=wye kv=13.8000 pf=1 pmpp=68.75 kva=68.75 irradiance=1 temperature=25 %cutin=20 %cutout=20 effcurve=MyEff P-TCurve=MyPvsT Daily=IRRAD_DIA TDaily=TEMP_DIA
New PVSystem.GD_6b693f33d409e7fc2882dd47da612caf809b89d38a7fa7b3fd20992abdfc675e phases=3 bus1=node_109104141.1.2.3 conn=wye kv=13.8000 pf=1 pmpp=28.77 kva=28.77 irradiance=1 temperature=25 %cutin=20 %cutout=20 effcurve=MyEff P-TCurve=MyPvsT Daily=IRRAD_DIA TDaily=TEMP_DIA
New PVSystem.GD_888373ccef7474939a9eda4995d88f47f95028cccaa1b46feb1862d3740501f8 phases=3 bus1=node_124225635.1.2.3 conn=wye kv=13.8000 pf=1 pmpp=119.94 kva=119.94 irradiance=1 temperature=25 %cutin=20 %cutout=20 effcurve=MyEff P-TCurve=MyPvsT Daily=IRRAD_DIA TDaily=TEMP_DIA
New PVSystem.GD_65e513be0f158d99199e69403882dcbc45817f9589748d1188779b4438851667 phases=3 bus1=node_123666889.1.2.3 conn=wye kv=13.8000 pf=1 pmpp=58.29 kva=58.29 irradiance=1 temperature=25 %cutin=20 %cutout=20 effcurve=MyEff P-TCurve=MyPvsT Daily=IRRAD_DIA TDaily=TEMP_DIA
New PVSystem.GD_81e680725f9bbfb8f4c14b7d62a87f99e59c8f466675ba58f3e4356abcd4f509 phases=3 bus1=node_444465012.1.2.3 conn=wye kv=13.8000 pf=1 pmpp=62.03 kva=62.03 irradiance=1 temperature=25 %cutin=20 %cutout=20 effcurve=MyEff P-TCurve=MyPvsT Daily=IRRAD_DIA TDaily=TEMP_DIA
New PVSystem.GD_ec34aa30197c34e99a4253804adb832ae596e9567460a337a64f9ca79fbee5d5 phases=3 bus1=node_444463752.1.2.3 conn=wye kv=13.8000 pf=1 pmpp=13.70 kva=13.70 irradiance=1 temperature=25 %cutin=20 %cutout=20 effcurve=MyEff P-TCurve=MyPvsT Daily=IRRAD_DIA TDaily=TEMP_DIA
New PVSystem.GD_9bb9d04f421d131e6aec0cdfd339b87dc2563c295936d2cb4a394db1a94e5580 phases=3 bus1=node_109226583.1.2.3 conn=wye kv=13.8000 pf=1 pmpp=15.88 kva=15.88 irradiance=1 temperature=25 %cutin=20 %cutout=20 effcurve=MyEff P-TCurve=MyPvsT Daily=IRRAD_DIA TDaily=TEMP_DIA
New PVSystem.GD_58d2db542ecd7a8332dcab2de41ef7c89a304b17a3db3afad0842757533e27c4_1 phases=1 bus1=node_418078734.1.4 conn=wye kv=0.1270 pf=1 pmpp=0.81 kva=0.81 irradiance=1 temperature=25 %cutin=20 %cutout=20 effcurve=MyEff P-TCurve=MyPvsT Daily=IRRAD_DIA TDaily=TEMP_DIA
New PVSystem.GD_58d2db542ecd7a8332dcab2de41ef7c89a304b17a3db3afad0842757533e27c4_2 phases=1 bus1=node_418078734.2.4 conn=wye kv=0.1270 pf=1 pmpp=0.81 kva=0.81 irradiance=1 temperature=25 %cutin=20 %cutout=20 effcurve=MyEff P-TCurve=MyPvsT Daily=IRRAD_DIA TDaily=TEMP_DIA
New PVSystem.GD_58d2db542ecd7a8332dcab2de41ef7c89a304b17a3db3afad0842757533e27c4_3 phases=1 bus1=node_418078734.3.4 conn=wye kv=0.1270 pf=1 pmpp=0.81 kva=0.81 irradiance=1 temperature=25 %cutin=20 %cutout=20 effcurve=MyEff P-TCurve=MyPvsT Daily=IRRAD_DIA TDaily=TEMP_DIA
New PVSystem.GD_0f9a45d6e99ca42dae057acbcda326b655aa3019f469b0ea0113f34438ac6e98_1 phases=1 bus1=node_418078734.1.4 conn=wye kv=0.1270 pf=1 pmpp=0.76 kva=0.76 irradiance=1 temperature=25 %cutin=20 %cutout=20 effcurve=MyEff P-TCurve=MyPvsT Daily=IRRAD_DIA TDaily=TEMP_DIA
New PVSystem.GD_0f9a45d6e99ca42dae057acbcda326b655aa3019f469b0ea0113f34438ac6e98_2 phases=1 bus1=node_418078734.2.4 conn=wye kv=0.1270 pf=1 pmpp=0.76 kva=0.76 irradiance=1 temperature=25 %cutin=20 %cutout=20 effcurve=MyEff P-TCurve=MyPvsT Daily=IRRAD_DIA TDaily=TEMP_DIA
New PVSystem.GD_0f9a45d6e99ca42dae057acbcda326b655aa3019f469b0ea0113f34438ac6e98_3 phases=1 bus1=node_418078734.3.4 conn=wye kv=0.1270 pf=1 pmpp=0.76 kva=0.76 irradiance=1 temperature=25 %cutin=20 %cutout=20 effcurve=MyEff P-TCurve=MyPvsT Daily=IRRAD_DIA TDaily=TEMP_DIA
New PVSystem.GD_2d7455ec34b5a2ffe1b580e75ac196201f6bc4dce712916a2d91dc12ed101255_1 phases=1 bus1=node_419959558.1.4 conn=wye kv=0.1270 pf=1 pmpp=0.15 kva=0.15 irradiance=1 temperature=25 %cutin=20 %cutout=20 effcurve=MyEff P-TCurve=MyPvsT Daily=IRRAD_DIA TDaily=TEMP_DIA
New PVSystem.GD_2d7455ec34b5a2ffe1b580e75ac196201f6bc4dce712916a2d91dc12ed101255_2 phases=1 bus1=node_419959558.2.4 conn=wye kv=0.1270 pf=1 pmpp=0.15 kva=0.15 irradiance=1 temperature=25 %cutin=20 %cutout=20 effcurve=MyEff P-TCurve=MyPvsT Daily=IRRAD_DIA TDaily=TEMP_DIA
New PVSystem.GD_2d7455ec34b5a2ffe1b580e75ac196201f6bc4dce712916a2d91dc12ed101255_3 phases=1 bus1=node_419959558.3.4 conn=wye kv=0.1270 pf=1 pmpp=0.15 kva=0.15 irradiance=1 temperature=25 %cutin=20 %cutout=20 effcurve=MyEff P-TCurve=MyPvsT Daily=IRRAD_DIA TDaily=TEMP_DIA
New PVSystem.GD_ba460887ef29748547da9e3fe2c3d753323c19af4b14a47413074ff6f559b642_1 phases=1 bus1=node_419959558.1.4 conn=wye kv=0.1270 pf=1 pmpp=0.87 kva=0.87 irradiance=1 temperature=25 %cutin=20 %cutout=20 effcurve=MyEff P-TCurve=MyPvsT Daily=IRRAD_DIA TDaily=TEMP_DIA
New PVSystem.GD_ba460887ef29748547da9e3fe2c3d753323c19af4b14a47413074ff6f559b642_2 phases=1 bus1=node_419959558.2.4 conn=wye kv=0.1270 pf=1 pmpp=0.87 kva=0.87 irradiance=1 temperature=25 %cutin=20 %cutout=20 effcurve=MyEff P-TCurve=MyPvsT Daily=IRRAD_DIA TDaily=TEMP_DIA
New PVSystem.GD_ba460887ef29748547da9e3fe2c3d753323c19af4b14a47413074ff6f559b642_3 phases=1 bus1=node_419959558.3.4 conn=wye kv=0.1270 pf=1 pmpp=0.87 kva=0.87 irradiance=1 temperature=25 %cutin=20 %cutout=20 effcurve=MyEff P-TCurve=MyPvsT Daily=IRRAD_DIA TDaily=TEMP_DIA
New PVSystem.GD_0e5820eadeed2a3cdadb04bca9bb6414d1e253a7e06d3592b18bdd5c0942b85b_1 phases=1 bus1=node_419959558.1.4 conn=wye kv=0.1270 pf=1 pmpp=0.65 kva=0.65 irradiance=1 temperature=25 %cutin=20 %cutout=20 effcurve=MyEff P-TCurve=MyPvsT Daily=IRRAD_DIA TDaily=TEMP_DIA
New PVSystem.GD_0e5820eadeed2a3cdadb04bca9bb6414d1e253a7e06d3592b18bdd5c0942b85b_2 phases=1 bus1=node_419959558.2.4 conn=wye kv=0.1270 pf=1 pmpp=0.65 kva=0.65 irradiance=1 temperature=25 %cutin=20 %cutout=20 effcurve=MyEff P-TCurve=MyPvsT Daily=IRRAD_DIA TDaily=TEMP_DIA
New PVSystem.GD_0e5820eadeed2a3cdadb04bca9bb6414d1e253a7e06d3592b18bdd5c0942b85b_3 phases=1 bus1=node_419959558.3.4 conn=wye kv=0.1270 pf=1 pmpp=0.65 kva=0.65 irradiance=1 temperature=25 %cutin=20 %cutout=20 effcurve=MyEff P-TCurve=MyPvsT Daily=IRRAD_DIA TDaily=TEMP_DIA
New PVSystem.GD_15e68293945293d0a80aa2206e0e4689bd0874f472967f1fd2c294fd6b63ee72_1 phases=1 bus1=node_418088005.1.4 conn=wye kv=0.1270 pf=1 pmpp=0.39 kva=0.39 irradiance=1 temperature=25 %cutin=20 %cutout=20 effcurve=MyEff P-TCurve=MyPvsT Daily=IRRAD_DIA TDaily=TEMP_DIA
New PVSystem.GD_15e68293945293d0a80aa2206e0e4689bd0874f472967f1fd2c294fd6b63ee72_2 phases=1 bus1=node_418088005.2.4 conn=wye kv=0.1270 pf=1 pmpp=0.39 kva=0.39 irradiance=1 temperature=25 %cutin=20 %cutout=20 effcurve=MyEff P-TCurve=MyPvsT Daily=IRRAD_DIA TDaily=TEMP_DIA
New PVSystem.GD_15e68293945293d0a80aa2206e0e4689bd0874f472967f1fd2c294fd6b63ee72_3 phases=1 bus1=node_418088005.3.4 conn=wye kv=0.1270 pf=1 pmpp=0.39 kva=0.39 irradiance=1 temperature=25 %cutin=20 %cutout=20 effcurve=MyEff P-TCurve=MyPvsT Daily=IRRAD_DIA TDaily=TEMP_DIA
New PVSystem.GD_c815351dd5883393eb0ebe63702c6b9b64162e78c70bc7d064d95439c38d7958_1 phases=1 bus1=node_418088005.1.4 conn=wye kv=0.1270 pf=1 pmpp=0.33 kva=0.33 irradiance=1 temperature=25 %cutin=20 %cutout=20 effcurve=MyEff P-TCurve=MyPvsT Daily=IRRAD_DIA TDaily=TEMP_DIA
New PVSystem.GD_c815351dd5883393eb0ebe63702c6b9b64162e78c70bc7d064d95439c38d7958_2 phases=1 bus1=node_418088005.2.4 conn=wye kv=0.1270 pf=1 pmpp=0.33 kva=0.33 irradiance=1 temperature=25 %cutin=20 %cutout=20 effcurve=MyEff P-TCurve=MyPvsT Daily=IRRAD_DIA TDaily=TEMP_DIA
New PVSystem.GD_c815351dd5883393eb0ebe63702c6b9b64162e78c70bc7d064d95439c38d7958_3 phases=1 bus1=node_418088005.3.4 conn=wye kv=0.1270 pf=1 pmpp=0.33 kva=0.33 irradiance=1 temperature=25 %cutin=20 %cutout=20 effcurve=MyEff P-TCurve=MyPvsT Daily=IRRAD_DIA TDaily=TEMP_DIA
New PVSystem.GD_a70596e6bead711e98bf630f17135e0d25f8a954a8820d6d50228d61b95b5625_1 phases=1 bus1=node_418088005.1.4 conn=wye kv=0.1270 pf=1 pmpp=0.28 kva=0.28 irradiance=1 temperature=25 %cutin=20 %cutout=20 effcurve=MyEff P-TCurve=MyPvsT Daily=IRRAD_DIA TDaily=TEMP_DIA
New PVSystem.GD_a70596e6bead711e98bf630f17135e0d25f8a954a8820d6d50228d61b95b5625_2 phases=1 bus1=node_418088005.2.4 conn=wye kv=0.1270 pf=1 pmpp=0.28 kva=0.28 irradiance=1 temperature=25 %cutin=20 %cutout=20 effcurve=MyEff P-TCurve=MyPvsT Daily=IRRAD_DIA TDaily=TEMP_DIA
New PVSystem.GD_a70596e6bead711e98bf630f17135e0d25f8a954a8820d6d50228d61b95b5625_3 phases=1 bus1=node_418088005.3.4 conn=wye kv=0.1270 pf=1 pmpp=0.28 kva=0.28 irradiance=1 temperature=25 %cutin=20 %cutout=20 effcurve=MyEff P-TCurve=MyPvsT Daily=IRRAD_DIA TDaily=TEMP_DIA
New PVSystem.GD_1db7d06e9585449f14b3197631d54e6a294d5d3586b03130a5fd96807ded0699_1 phases=1 bus1=node_418088005.1.4 conn=wye kv=0.1270 pf=1 pmpp=1.85 kva=1.85 irradiance=1 temperature=25 %cutin=20 %cutout=20 effcurve=MyEff P-TCurve=MyPvsT Daily=IRRAD_DIA TDaily=TEMP_DIA
New PVSystem.GD_1db7d06e9585449f14b3197631d54e6a294d5d3586b03130a5fd96807ded0699_2 phases=1 bus1=node_418088005.2.4 conn=wye kv=0.1270 pf=1 pmpp=1.85 kva=1.85 irradiance=1 temperature=25 %cutin=20 %cutout=20 effcurve=MyEff P-TCurve=MyPvsT Daily=IRRAD_DIA TDaily=TEMP_DIA
New PVSystem.GD_1db7d06e9585449f14b3197631d54e6a294d5d3586b03130a5fd96807ded0699_3 phases=1 bus1=node_418088005.3.4 conn=wye kv=0.1270 pf=1 pmpp=1.85 kva=1.85 irradiance=1 temperature=25 %cutin=20 %cutout=20 effcurve=MyEff P-TCurve=MyPvsT Daily=IRRAD_DIA TDaily=TEMP_DIA
New PVSystem.GD_d603d414f5fe573c9ca8f953338100a5b500ccf06ebfbe35885fa0458ae92b1f_1 phases=1 bus1=node_418077363.1.4 conn=wye kv=0.1200 pf=1 pmpp=1.86 kva=1.86 irradiance=1 temperature=25 %cutin=20 %cutout=20 effcurve=MyEff P-TCurve=MyPvsT Daily=IRRAD_DIA TDaily=TEMP_DIA
New PVSystem.GD_d603d414f5fe573c9ca8f953338100a5b500ccf06ebfbe35885fa0458ae92b1f_2 phases=1 bus1=node_418077363.2.4 conn=wye kv=0.1200 pf=1 pmpp=1.86 kva=1.86 irradiance=1 temperature=25 %cutin=20 %cutout=20 effcurve=MyEff P-TCurve=MyPvsT Daily=IRRAD_DIA TDaily=TEMP_DIA
New PVSystem.GD_a4e55063076c3038d3b30a193d604ba5ee92ea57f10a5a1ec366ae7791b2643b_1 phases=1 bus1=node_418079925.1.4 conn=wye kv=0.1270 pf=1 pmpp=0.71 kva=0.71 irradiance=1 temperature=25 %cutin=20 %cutout=20 effcurve=MyEff P-TCurve=MyPvsT Daily=IRRAD_DIA TDaily=TEMP_DIA
New PVSystem.GD_a4e55063076c3038d3b30a193d604ba5ee92ea57f10a5a1ec366ae7791b2643b_2 phases=1 bus1=node_418079925.2.4 conn=wye kv=0.1270 pf=1 pmpp=0.71 kva=0.71 irradiance=1 temperature=25 %cutin=20 %cutout=20 effcurve=MyEff P-TCurve=MyPvsT Daily=IRRAD_DIA TDaily=TEMP_DIA
New PVSystem.GD_a4e55063076c3038d3b30a193d604ba5ee92ea57f10a5a1ec366ae7791b2643b_3 phases=1 bus1=node_418079925.3.4 conn=wye kv=0.1270 pf=1 pmpp=0.71 kva=0.71 irradiance=1 temperature=25 %cutin=20 %cutout=20 effcurve=MyEff P-TCurve=MyPvsT Daily=IRRAD_DIA TDaily=TEMP_DIA
New PVSystem.GD_690c6a8011b736bff63109a336013fab80eb5795f9ba2122ac179b5179764f78_1 phases=1 bus1=node_418079925.1.4 conn=wye kv=0.1270 pf=1 pmpp=0.45 kva=0.45 irradiance=1 temperature=25 %cutin=20 %cutout=20 effcurve=MyEff P-TCurve=MyPvsT Daily=IRRAD_DIA TDaily=TEMP_DIA
New PVSystem.GD_690c6a8011b736bff63109a336013fab80eb5795f9ba2122ac179b5179764f78_2 phases=1 bus1=node_418079925.2.4 conn=wye kv=0.1270 pf=1 pmpp=0.45 kva=0.45 irradiance=1 temperature=25 %cutin=20 %cutout=20 effcurve=MyEff P-TCurve=MyPvsT Daily=IRRAD_DIA TDaily=TEMP_DIA
New PVSystem.GD_690c6a8011b736bff63109a336013fab80eb5795f9ba2122ac179b5179764f78_3 phases=1 bus1=node_418079925.3.4 conn=wye kv=0.1270 pf=1 pmpp=0.45 kva=0.45 irradiance=1 temperature=25 %cutin=20 %cutout=20 effcurve=MyEff P-TCurve=MyPvsT Daily=IRRAD_DIA TDaily=TEMP_DIA
New PVSystem.GD_eb75f0d1fec758beb13fd06d32a54b786888b991e476696f0ade30906b3e9010_1 phases=1 bus1=node_418079925.1.4 conn=wye kv=0.1270 pf=1 pmpp=0.72 kva=0.72 irradiance=1 temperature=25 %cutin=20 %cutout=20 effcurve=MyEff P-TCurve=MyPvsT Daily=IRRAD_DIA TDaily=TEMP_DIA
New PVSystem.GD_eb75f0d1fec758beb13fd06d32a54b786888b991e476696f0ade30906b3e9010_2 phases=1 bus1=node_418079925.2.4 conn=wye kv=0.1270 pf=1 pmpp=0.72 kva=0.72 irradiance=1 temperature=25 %cutin=20 %cutout=20 effcurve=MyEff P-TCurve=MyPvsT Daily=IRRAD_DIA TDaily=TEMP_DIA
New PVSystem.GD_eb75f0d1fec758beb13fd06d32a54b786888b991e476696f0ade30906b3e9010_3 phases=1 bus1=node_418079925.3.4 conn=wye kv=0.1270 pf=1 pmpp=0.72 kva=0.72 irradiance=1 temperature=25 %cutin=20 %cutout=20 effcurve=MyEff P-TCurve=MyPvsT Daily=IRRAD_DIA TDaily=TEMP_DIA
New PVSystem.GD_a622be62161d7bf7f8583b5bc0051b6edefa3de9dde2c129b43cc0216fff38fc_1 phases=1 bus1=node_418079925.1.4 conn=wye kv=0.1270 pf=1 pmpp=0.67 kva=0.67 irradiance=1 temperature=25 %cutin=20 %cutout=20 effcurve=MyEff P-TCurve=MyPvsT Daily=IRRAD_DIA TDaily=TEMP_DIA
New PVSystem.GD_a622be62161d7bf7f8583b5bc0051b6edefa3de9dde2c129b43cc0216fff38fc_2 phases=1 bus1=node_418079925.2.4 conn=wye kv=0.1270 pf=1 pmpp=0.67 kva=0.67 irradiance=1 temperature=25 %cutin=20 %cutout=20 effcurve=MyEff P-TCurve=MyPvsT Daily=IRRAD_DIA TDaily=TEMP_DIA
New PVSystem.GD_a622be62161d7bf7f8583b5bc0051b6edefa3de9dde2c129b43cc0216fff38fc_3 phases=1 bus1=node_418079925.3.4 conn=wye kv=0.1270 pf=1 pmpp=0.67 kva=0.67 irradiance=1 temperature=25 %cutin=20 %cutout=20 effcurve=MyEff P-TCurve=MyPvsT Daily=IRRAD_DIA TDaily=TEMP_DIA
New PVSystem.GD_2c8fbae00dc917bcd27e3c4ca4ccd29be42f87bb691cddda3ed01a7d45accb5b_1 phases=1 bus1=node_418079925.1.4 conn=wye kv=0.1270 pf=1 pmpp=0.48 kva=0.48 irradiance=1 temperature=25 %cutin=20 %cutout=20 effcurve=MyEff P-TCurve=MyPvsT Daily=IRRAD_DIA TDaily=TEMP_DIA
New PVSystem.GD_2c8fbae00dc917bcd27e3c4ca4ccd29be42f87bb691cddda3ed01a7d45accb5b_2 phases=1 bus1=node_418079925.2.4 conn=wye kv=0.1270 pf=1 pmpp=0.48 kva=0.48 irradiance=1 temperature=25 %cutin=20 %cutout=20 effcurve=MyEff P-TCurve=MyPvsT Daily=IRRAD_DIA TDaily=TEMP_DIA
New PVSystem.GD_2c8fbae00dc917bcd27e3c4ca4ccd29be42f87bb691cddda3ed01a7d45accb5b_3 phases=1 bus1=node_418079925.3.4 conn=wye kv=0.1270 pf=1 pmpp=0.48 kva=0.48 irradiance=1 temperature=25 %cutin=20 %cutout=20 effcurve=MyEff P-TCurve=MyPvsT Daily=IRRAD_DIA TDaily=TEMP_DIA
New PVSystem.GD_60e863f348be13bb92523e868e1f3fed2130881808569f0af0d066a611335914_1 phases=1 bus1=node_418096763.1.4 conn=wye kv=0.1270 pf=1 pmpp=0.56 kva=0.56 irradiance=1 temperature=25 %cutin=20 %cutout=20 effcurve=MyEff P-TCurve=MyPvsT Daily=IRRAD_DIA TDaily=TEMP_DIA
New PVSystem.GD_60e863f348be13bb92523e868e1f3fed2130881808569f0af0d066a611335914_2 phases=1 bus1=node_418096763.2.4 conn=wye kv=0.1270 pf=1 pmpp=0.56 kva=0.56 irradiance=1 temperature=25 %cutin=20 %cutout=20 effcurve=MyEff P-TCurve=MyPvsT Daily=IRRAD_DIA TDaily=TEMP_DIA
New PVSystem.GD_60e863f348be13bb92523e868e1f3fed2130881808569f0af0d066a611335914_3 phases=1 bus1=node_418096763.3.4 conn=wye kv=0.1270 pf=1 pmpp=0.56 kva=0.56 irradiance=1 temperature=25 %cutin=20 %cutout=20 effcurve=MyEff P-TCurve=MyPvsT Daily=IRRAD_DIA TDaily=TEMP_DIA
New PVSystem.GD_fa27c92ee3f69aa2af4b83707f72a49a2bb9a06823baafc2fd951e013c47ac42_1 phases=1 bus1=node_418096763.1.4 conn=wye kv=0.1270 pf=1 pmpp=0.42 kva=0.42 irradiance=1 temperature=25 %cutin=20 %cutout=20 effcurve=MyEff P-TCurve=MyPvsT Daily=IRRAD_DIA TDaily=TEMP_DIA
New PVSystem.GD_fa27c92ee3f69aa2af4b83707f72a49a2bb9a06823baafc2fd951e013c47ac42_2 phases=1 bus1=node_418096763.2.4 conn=wye kv=0.1270 pf=1 pmpp=0.42 kva=0.42 irradiance=1 temperature=25 %cutin=20 %cutout=20 effcurve=MyEff P-TCurve=MyPvsT Daily=IRRAD_DIA TDaily=TEMP_DIA
New PVSystem.GD_fa27c92ee3f69aa2af4b83707f72a49a2bb9a06823baafc2fd951e013c47ac42_3 phases=1 bus1=node_418096763.3.4 conn=wye kv=0.1270 pf=1 pmpp=0.42 kva=0.42 irradiance=1 temperature=25 %cutin=20 %cutout=20 effcurve=MyEff P-TCurve=MyPvsT Daily=IRRAD_DIA TDaily=TEMP_DIA
New PVSystem.GD_6ddd7b0316083a8f624215e317f20a8db7f0318ffdb85c4ab741b70bde6e0791_1 phases=1 bus1=node_418115347.1.4 conn=wye kv=0.1270 pf=1 pmpp=0.88 kva=0.88 irradiance=1 temperature=25 %cutin=20 %cutout=20 effcurve=MyEff P-TCurve=MyPvsT Daily=IRRAD_DIA TDaily=TEMP_DIA
New PVSystem.GD_6ddd7b0316083a8f624215e317f20a8db7f0318ffdb85c4ab741b70bde6e0791_2 phases=1 bus1=node_418115347.2.4 conn=wye kv=0.1270 pf=1 pmpp=0.88 kva=0.88 irradiance=1 temperature=25 %cutin=20 %cutout=20 effcurve=MyEff P-TCurve=MyPvsT Daily=IRRAD_DIA TDaily=TEMP_DIA
New PVSystem.GD_6ddd7b0316083a8f624215e317f20a8db7f0318ffdb85c4ab741b70bde6e0791_3 phases=1 bus1=node_418115347.3.4 conn=wye kv=0.1270 pf=1 pmpp=0.88 kva=0.88 irradiance=1 temperature=25 %cutin=20 %cutout=20 effcurve=MyEff P-TCurve=MyPvsT Daily=IRRAD_DIA TDaily=TEMP_DIA
New PVSystem.GD_dc7691f403bc4edb2bed6abca0a2751d1246947a05b3b7f3de8ce4c121181999_1 phases=1 bus1=node_418071308.1.4 conn=wye kv=0.1270 pf=1 pmpp=0.97 kva=0.97 irradiance=1 temperature=25 %cutin=20 %cutout=20 effcurve=MyEff P-TCurve=MyPvsT Daily=IRRAD_DIA TDaily=TEMP_DIA
New PVSystem.GD_dc7691f403bc4edb2bed6abca0a2751d1246947a05b3b7f3de8ce4c121181999_2 phases=1 bus1=node_418071308.2.4 conn=wye kv=0.1270 pf=1 pmpp=0.97 kva=0.97 irradiance=1 temperature=25 %cutin=20 %cutout=20 effcurve=MyEff P-TCurve=MyPvsT Daily=IRRAD_DIA TDaily=TEMP_DIA
New PVSystem.GD_dc7691f403bc4edb2bed6abca0a2751d1246947a05b3b7f3de8ce4c121181999_3 phases=1 bus1=node_418071308.3.4 conn=wye kv=0.1270 pf=1 pmpp=0.97 kva=0.97 irradiance=1 temperature=25 %cutin=20 %cutout=20 effcurve=MyEff P-TCurve=MyPvsT Daily=IRRAD_DIA TDaily=TEMP_DIA
New PVSystem.GD_175eb9ab610b7cbbebfca7928b0da2a27824f83c97b4449c73a6d7b7e5836828_1 phases=1 bus1=node_466436239.1.4 conn=wye kv=0.1270 pf=1 pmpp=0.81 kva=0.81 irradiance=1 temperature=25 %cutin=20 %cutout=20 effcurve=MyEff P-TCurve=MyPvsT Daily=IRRAD_DIA TDaily=TEMP_DIA
New PVSystem.GD_175eb9ab610b7cbbebfca7928b0da2a27824f83c97b4449c73a6d7b7e5836828_2 phases=1 bus1=node_466436239.2.4 conn=wye kv=0.1270 pf=1 pmpp=0.81 kva=0.81 irradiance=1 temperature=25 %cutin=20 %cutout=20 effcurve=MyEff P-TCurve=MyPvsT Daily=IRRAD_DIA TDaily=TEMP_DIA
New PVSystem.GD_175eb9ab610b7cbbebfca7928b0da2a27824f83c97b4449c73a6d7b7e5836828_3 phases=1 bus1=node_466436239.3.4 conn=wye kv=0.1270 pf=1 pmpp=0.81 kva=0.81 irradiance=1 temperature=25 %cutin=20 %cutout=20 effcurve=MyEff P-TCurve=MyPvsT Daily=IRRAD_DIA TDaily=TEMP_DIA
New PVSystem.GD_8593a1f11e2ab704cc4589832570001a0e55411d3949a9a66914e8a49026fdc1_1 phases=1 bus1=node_466436239.1.4 conn=wye kv=0.1270 pf=1 pmpp=2.40 kva=2.40 irradiance=1 temperature=25 %cutin=20 %cutout=20 effcurve=MyEff P-TCurve=MyPvsT Daily=IRRAD_DIA TDaily=TEMP_DIA
New PVSystem.GD_8593a1f11e2ab704cc4589832570001a0e55411d3949a9a66914e8a49026fdc1_2 phases=1 bus1=node_466436239.2.4 conn=wye kv=0.1270 pf=1 pmpp=2.40 kva=2.40 irradiance=1 temperature=25 %cutin=20 %cutout=20 effcurve=MyEff P-TCurve=MyPvsT Daily=IRRAD_DIA TDaily=TEMP_DIA
New PVSystem.GD_8593a1f11e2ab704cc4589832570001a0e55411d3949a9a66914e8a49026fdc1_3 phases=1 bus1=node_466436239.3.4 conn=wye kv=0.1270 pf=1 pmpp=2.40 kva=2.40 irradiance=1 temperature=25 %cutin=20 %cutout=20 effcurve=MyEff P-TCurve=MyPvsT Daily=IRRAD_DIA TDaily=TEMP_DIA
New PVSystem.GD_fbfc70704d3a265ec4772e9dea5a6276d9f5ab6ad3d5e2075e1f8f3ab3ba86dc_1 phases=1 bus1=node_417230405.1.4 conn=wye kv=0.1270 pf=1 pmpp=3.39 kva=3.39 irradiance=1 temperature=25 %cutin=20 %cutout=20 effcurve=MyEff P-TCurve=MyPvsT Daily=IRRAD_DIA TDaily=TEMP_DIA
New PVSystem.GD_fbfc70704d3a265ec4772e9dea5a6276d9f5ab6ad3d5e2075e1f8f3ab3ba86dc_2 phases=1 bus1=node_417230405.2.4 conn=wye kv=0.1270 pf=1 pmpp=3.39 kva=3.39 irradiance=1 temperature=25 %cutin=20 %cutout=20 effcurve=MyEff P-TCurve=MyPvsT Daily=IRRAD_DIA TDaily=TEMP_DIA
New PVSystem.GD_fbfc70704d3a265ec4772e9dea5a6276d9f5ab6ad3d5e2075e1f8f3ab3ba86dc_3 phases=1 bus1=node_417230405.3.4 conn=wye kv=0.1270 pf=1 pmpp=3.39 kva=3.39 irradiance=1 temperature=25 %cutin=20 %cutout=20 effcurve=MyEff P-TCurve=MyPvsT Daily=IRRAD_DIA TDaily=TEMP_DIA
New PVSystem.GD_b2cd68b854a2b9d3e7ec785186c62d5097d019fd0648de79a647a5eded10ca23_1 phases=1 bus1=node_417230405.1.4 conn=wye kv=0.1270 pf=1 pmpp=0.81 kva=0.81 irradiance=1 temperature=25 %cutin=20 %cutout=20 effcurve=MyEff P-TCurve=MyPvsT Daily=IRRAD_DIA TDaily=TEMP_DIA
New PVSystem.GD_b2cd68b854a2b9d3e7ec785186c62d5097d019fd0648de79a647a5eded10ca23_2 phases=1 bus1=node_417230405.2.4 conn=wye kv=0.1270 pf=1 pmpp=0.81 kva=0.81 irradiance=1 temperature=25 %cutin=20 %cutout=20 effcurve=MyEff P-TCurve=MyPvsT Daily=IRRAD_DIA TDaily=TEMP_DIA
New PVSystem.GD_b2cd68b854a2b9d3e7ec785186c62d5097d019fd0648de79a647a5eded10ca23_3 phases=1 bus1=node_417230405.3.4 conn=wye kv=0.1270 pf=1 pmpp=0.81 kva=0.81 irradiance=1 temperature=25 %cutin=20 %cutout=20 effcurve=MyEff P-TCurve=MyPvsT Daily=IRRAD_DIA TDaily=TEMP_DIA
New PVSystem.GD_87446a2952dbb4475bc8dc4813e6eddabe8651208cca13612de39729100abeb6_1 phases=1 bus1=node_417230405.1.4 conn=wye kv=0.1270 pf=1 pmpp=0.84 kva=0.84 irradiance=1 temperature=25 %cutin=20 %cutout=20 effcurve=MyEff P-TCurve=MyPvsT Daily=IRRAD_DIA TDaily=TEMP_DIA
New PVSystem.GD_87446a2952dbb4475bc8dc4813e6eddabe8651208cca13612de39729100abeb6_2 phases=1 bus1=node_417230405.2.4 conn=wye kv=0.1270 pf=1 pmpp=0.84 kva=0.84 irradiance=1 temperature=25 %cutin=20 %cutout=20 effcurve=MyEff P-TCurve=MyPvsT Daily=IRRAD_DIA TDaily=TEMP_DIA
New PVSystem.GD_87446a2952dbb4475bc8dc4813e6eddabe8651208cca13612de39729100abeb6_3 phases=1 bus1=node_417230405.3.4 conn=wye kv=0.1270 pf=1 pmpp=0.84 kva=0.84 irradiance=1 temperature=25 %cutin=20 %cutout=20 effcurve=MyEff P-TCurve=MyPvsT Daily=IRRAD_DIA TDaily=TEMP_DIA
New PVSystem.GD_23aea146443b1fd5fbf66253e2707737018381f1efe0e30378c26eb1e9a29d91_1 phases=1 bus1=node_418071320.1.4 conn=wye kv=0.1270 pf=1 pmpp=0.91 kva=0.91 irradiance=1 temperature=25 %cutin=20 %cutout=20 effcurve=MyEff P-TCurve=MyPvsT Daily=IRRAD_DIA TDaily=TEMP_DIA
New PVSystem.GD_23aea146443b1fd5fbf66253e2707737018381f1efe0e30378c26eb1e9a29d91_2 phases=1 bus1=node_418071320.2.4 conn=wye kv=0.1270 pf=1 pmpp=0.91 kva=0.91 irradiance=1 temperature=25 %cutin=20 %cutout=20 effcurve=MyEff P-TCurve=MyPvsT Daily=IRRAD_DIA TDaily=TEMP_DIA
New PVSystem.GD_23aea146443b1fd5fbf66253e2707737018381f1efe0e30378c26eb1e9a29d91_3 phases=1 bus1=node_418071320.3.4 conn=wye kv=0.1270 pf=1 pmpp=0.91 kva=0.91 irradiance=1 temperature=25 %cutin=20 %cutout=20 effcurve=MyEff P-TCurve=MyPvsT Daily=IRRAD_DIA TDaily=TEMP_DIA
New PVSystem.GD_75cbedfdeca12947540d5b41b028073dccc44827a7e05d32253384ad63105f08_1 phases=1 bus1=node_418071320.1.4 conn=wye kv=0.1270 pf=1 pmpp=0.61 kva=0.61 irradiance=1 temperature=25 %cutin=20 %cutout=20 effcurve=MyEff P-TCurve=MyPvsT Daily=IRRAD_DIA TDaily=TEMP_DIA
New PVSystem.GD_75cbedfdeca12947540d5b41b028073dccc44827a7e05d32253384ad63105f08_2 phases=1 bus1=node_418071320.2.4 conn=wye kv=0.1270 pf=1 pmpp=0.61 kva=0.61 irradiance=1 temperature=25 %cutin=20 %cutout=20 effcurve=MyEff P-TCurve=MyPvsT Daily=IRRAD_DIA TDaily=TEMP_DIA
New PVSystem.GD_75cbedfdeca12947540d5b41b028073dccc44827a7e05d32253384ad63105f08_3 phases=1 bus1=node_418071320.3.4 conn=wye kv=0.1270 pf=1 pmpp=0.61 kva=0.61 irradiance=1 temperature=25 %cutin=20 %cutout=20 effcurve=MyEff P-TCurve=MyPvsT Daily=IRRAD_DIA TDaily=TEMP_DIA
New PVSystem.GD_3b95809a6b1ea4fdb3cb4f718d26b0409d3fbe121cd1d87dbf3e3fd16448231b_1 phases=1 bus1=node_418071287.1.4 conn=wye kv=0.1270 pf=1 pmpp=0.28 kva=0.28 irradiance=1 temperature=25 %cutin=20 %cutout=20 effcurve=MyEff P-TCurve=MyPvsT Daily=IRRAD_DIA TDaily=TEMP_DIA
New PVSystem.GD_3b95809a6b1ea4fdb3cb4f718d26b0409d3fbe121cd1d87dbf3e3fd16448231b_2 phases=1 bus1=node_418071287.2.4 conn=wye kv=0.1270 pf=1 pmpp=0.28 kva=0.28 irradiance=1 temperature=25 %cutin=20 %cutout=20 effcurve=MyEff P-TCurve=MyPvsT Daily=IRRAD_DIA TDaily=TEMP_DIA
New PVSystem.GD_3b95809a6b1ea4fdb3cb4f718d26b0409d3fbe121cd1d87dbf3e3fd16448231b_3 phases=1 bus1=node_418071287.3.4 conn=wye kv=0.1270 pf=1 pmpp=0.28 kva=0.28 irradiance=1 temperature=25 %cutin=20 %cutout=20 effcurve=MyEff P-TCurve=MyPvsT Daily=IRRAD_DIA TDaily=TEMP_DIA
New PVSystem.GD_2b34f5cfa76ee1f8b6e15d8dcac7a3e73e41de074792705a68baf4049cb77b9e_1 phases=1 bus1=node_418071287.1.4 conn=wye kv=0.1270 pf=1 pmpp=12.62 kva=12.62 irradiance=1 temperature=25 %cutin=20 %cutout=20 effcurve=MyEff P-TCurve=MyPvsT Daily=IRRAD_DIA TDaily=TEMP_DIA
New PVSystem.GD_2b34f5cfa76ee1f8b6e15d8dcac7a3e73e41de074792705a68baf4049cb77b9e_2 phases=1 bus1=node_418071287.2.4 conn=wye kv=0.1270 pf=1 pmpp=12.62 kva=12.62 irradiance=1 temperature=25 %cutin=20 %cutout=20 effcurve=MyEff P-TCurve=MyPvsT Daily=IRRAD_DIA TDaily=TEMP_DIA
New PVSystem.GD_2b34f5cfa76ee1f8b6e15d8dcac7a3e73e41de074792705a68baf4049cb77b9e_3 phases=1 bus1=node_418071287.3.4 conn=wye kv=0.1270 pf=1 pmpp=12.62 kva=12.62 irradiance=1 temperature=25 %cutin=20 %cutout=20 effcurve=MyEff P-TCurve=MyPvsT Daily=IRRAD_DIA TDaily=TEMP_DIA
New PVSystem.GD_9f1cbb45bf8a03f96effecc9a54bb7ca7cd6dd71f64da8edde1d0d58a44f6c43_1 phases=1 bus1=node_418069895.1.4 conn=wye kv=0.1270 pf=1 pmpp=0.88 kva=0.88 irradiance=1 temperature=25 %cutin=20 %cutout=20 effcurve=MyEff P-TCurve=MyPvsT Daily=IRRAD_DIA TDaily=TEMP_DIA
New PVSystem.GD_9f1cbb45bf8a03f96effecc9a54bb7ca7cd6dd71f64da8edde1d0d58a44f6c43_2 phases=1 bus1=node_418069895.2.4 conn=wye kv=0.1270 pf=1 pmpp=0.88 kva=0.88 irradiance=1 temperature=25 %cutin=20 %cutout=20 effcurve=MyEff P-TCurve=MyPvsT Daily=IRRAD_DIA TDaily=TEMP_DIA
New PVSystem.GD_9f1cbb45bf8a03f96effecc9a54bb7ca7cd6dd71f64da8edde1d0d58a44f6c43_3 phases=1 bus1=node_418069895.3.4 conn=wye kv=0.1270 pf=1 pmpp=0.88 kva=0.88 irradiance=1 temperature=25 %cutin=20 %cutout=20 effcurve=MyEff P-TCurve=MyPvsT Daily=IRRAD_DIA TDaily=TEMP_DIA
New PVSystem.GD_102fc60a93f3ad21fff588679b367ebaa18a612cdf40c63bb7695bfbbc0ca6db_1 phases=1 bus1=node_418069895.1.4 conn=wye kv=0.1270 pf=1 pmpp=0.43 kva=0.43 irradiance=1 temperature=25 %cutin=20 %cutout=20 effcurve=MyEff P-TCurve=MyPvsT Daily=IRRAD_DIA TDaily=TEMP_DIA
New PVSystem.GD_102fc60a93f3ad21fff588679b367ebaa18a612cdf40c63bb7695bfbbc0ca6db_2 phases=1 bus1=node_418069895.2.4 conn=wye kv=0.1270 pf=1 pmpp=0.43 kva=0.43 irradiance=1 temperature=25 %cutin=20 %cutout=20 effcurve=MyEff P-TCurve=MyPvsT Daily=IRRAD_DIA TDaily=TEMP_DIA
New PVSystem.GD_102fc60a93f3ad21fff588679b367ebaa18a612cdf40c63bb7695bfbbc0ca6db_3 phases=1 bus1=node_418069895.3.4 conn=wye kv=0.1270 pf=1 pmpp=0.43 kva=0.43 irradiance=1 temperature=25 %cutin=20 %cutout=20 effcurve=MyEff P-TCurve=MyPvsT Daily=IRRAD_DIA TDaily=TEMP_DIA
New PVSystem.GD_5aa8d45f0d4913f4f6efddb4b70463df08bb4d89f587da9c312ea51ab793be5e_1 phases=1 bus1=node_418087618.1.4 conn=wye kv=0.1200 pf=1 pmpp=0.01 kva=0.10 irradiance=1 temperature=25 %cutin=20 %cutout=20 effcurve=MyEff P-TCurve=MyPvsT Daily=IRRAD_DIA TDaily=TEMP_DIA
New PVSystem.GD_5aa8d45f0d4913f4f6efddb4b70463df08bb4d89f587da9c312ea51ab793be5e_2 phases=1 bus1=node_418087618.2.4 conn=wye kv=0.1200 pf=1 pmpp=0.01 kva=0.10 irradiance=1 temperature=25 %cutin=20 %cutout=20 effcurve=MyEff P-TCurve=MyPvsT Daily=IRRAD_DIA TDaily=TEMP_DIA
New PVSystem.GD_440ef917157debe819921267bd009c1f99e39f64a4afe40cfe060fe29778911b_1 phases=1 bus1=node_418078812.1.4 conn=wye kv=0.1270 pf=1 pmpp=0.59 kva=0.59 irradiance=1 temperature=25 %cutin=20 %cutout=20 effcurve=MyEff P-TCurve=MyPvsT Daily=IRRAD_DIA TDaily=TEMP_DIA
New PVSystem.GD_440ef917157debe819921267bd009c1f99e39f64a4afe40cfe060fe29778911b_2 phases=1 bus1=node_418078812.2.4 conn=wye kv=0.1270 pf=1 pmpp=0.59 kva=0.59 irradiance=1 temperature=25 %cutin=20 %cutout=20 effcurve=MyEff P-TCurve=MyPvsT Daily=IRRAD_DIA TDaily=TEMP_DIA
New PVSystem.GD_440ef917157debe819921267bd009c1f99e39f64a4afe40cfe060fe29778911b_3 phases=1 bus1=node_418078812.3.4 conn=wye kv=0.1270 pf=1 pmpp=0.59 kva=0.59 irradiance=1 temperature=25 %cutin=20 %cutout=20 effcurve=MyEff P-TCurve=MyPvsT Daily=IRRAD_DIA TDaily=TEMP_DIA
New PVSystem.GD_5f6337c406c1713ce6d7f9e9ee42f08e3f65031820257fd70a94cb30c47e87db_1 phases=1 bus1=node_418078812.1.4 conn=wye kv=0.1270 pf=1 pmpp=0.21 kva=0.21 irradiance=1 temperature=25 %cutin=20 %cutout=20 effcurve=MyEff P-TCurve=MyPvsT Daily=IRRAD_DIA TDaily=TEMP_DIA
New PVSystem.GD_5f6337c406c1713ce6d7f9e9ee42f08e3f65031820257fd70a94cb30c47e87db_2 phases=1 bus1=node_418078812.2.4 conn=wye kv=0.1270 pf=1 pmpp=0.21 kva=0.21 irradiance=1 temperature=25 %cutin=20 %cutout=20 effcurve=MyEff P-TCurve=MyPvsT Daily=IRRAD_DIA TDaily=TEMP_DIA
New PVSystem.GD_5f6337c406c1713ce6d7f9e9ee42f08e3f65031820257fd70a94cb30c47e87db_3 phases=1 bus1=node_418078812.3.4 conn=wye kv=0.1270 pf=1 pmpp=0.21 kva=0.21 irradiance=1 temperature=25 %cutin=20 %cutout=20 effcurve=MyEff P-TCurve=MyPvsT Daily=IRRAD_DIA TDaily=TEMP_DIA
New PVSystem.GD_fefa5e003014436c45952520738f57c02abbf20a2667423a79c65ca1a136ba28_1 phases=1 bus1=node_418095797.1.4 conn=wye kv=0.1270 pf=1 pmpp=0.23 kva=0.23 irradiance=1 temperature=25 %cutin=20 %cutout=20 effcurve=MyEff P-TCurve=MyPvsT Daily=IRRAD_DIA TDaily=TEMP_DIA
New PVSystem.GD_fefa5e003014436c45952520738f57c02abbf20a2667423a79c65ca1a136ba28_2 phases=1 bus1=node_418095797.2.4 conn=wye kv=0.1270 pf=1 pmpp=0.23 kva=0.23 irradiance=1 temperature=25 %cutin=20 %cutout=20 effcurve=MyEff P-TCurve=MyPvsT Daily=IRRAD_DIA TDaily=TEMP_DIA
New PVSystem.GD_fefa5e003014436c45952520738f57c02abbf20a2667423a79c65ca1a136ba28_3 phases=1 bus1=node_418095797.3.4 conn=wye kv=0.1270 pf=1 pmpp=0.23 kva=0.23 irradiance=1 temperature=25 %cutin=20 %cutout=20 effcurve=MyEff P-TCurve=MyPvsT Daily=IRRAD_DIA TDaily=TEMP_DIA
New PVSystem.GD_f21b0f2b866ed8f4214986f87eff2e3c39a95ffea7ce9f7918cb5e1592c9427a_1 phases=1 bus1=node_418120808.1.4 conn=wye kv=0.1270 pf=1 pmpp=0.64 kva=0.64 irradiance=1 temperature=25 %cutin=20 %cutout=20 effcurve=MyEff P-TCurve=MyPvsT Daily=IRRAD_DIA TDaily=TEMP_DIA
New PVSystem.GD_f21b0f2b866ed8f4214986f87eff2e3c39a95ffea7ce9f7918cb5e1592c9427a_2 phases=1 bus1=node_418120808.2.4 conn=wye kv=0.1270 pf=1 pmpp=0.64 kva=0.64 irradiance=1 temperature=25 %cutin=20 %cutout=20 effcurve=MyEff P-TCurve=MyPvsT Daily=IRRAD_DIA TDaily=TEMP_DIA
New PVSystem.GD_f21b0f2b866ed8f4214986f87eff2e3c39a95ffea7ce9f7918cb5e1592c9427a_3 phases=1 bus1=node_418120808.3.4 conn=wye kv=0.1270 pf=1 pmpp=0.64 kva=0.64 irradiance=1 temperature=25 %cutin=20 %cutout=20 effcurve=MyEff P-TCurve=MyPvsT Daily=IRRAD_DIA TDaily=TEMP_DIA
New PVSystem.GD_697101ba39c579a1cc4d1987145d10456490c4f5063bd0dbe056b62d9e4ce4a6_1 phases=1 bus1=node_418120808.1.4 conn=wye kv=0.1270 pf=1 pmpp=0.00 kva=0.10 irradiance=1 temperature=25 %cutin=20 %cutout=20 effcurve=MyEff P-TCurve=MyPvsT Daily=IRRAD_DIA TDaily=TEMP_DIA
New PVSystem.GD_697101ba39c579a1cc4d1987145d10456490c4f5063bd0dbe056b62d9e4ce4a6_2 phases=1 bus1=node_418120808.2.4 conn=wye kv=0.1270 pf=1 pmpp=0.00 kva=0.10 irradiance=1 temperature=25 %cutin=20 %cutout=20 effcurve=MyEff P-TCurve=MyPvsT Daily=IRRAD_DIA TDaily=TEMP_DIA
New PVSystem.GD_697101ba39c579a1cc4d1987145d10456490c4f5063bd0dbe056b62d9e4ce4a6_3 phases=1 bus1=node_418120808.3.4 conn=wye kv=0.1270 pf=1 pmpp=0.00 kva=0.10 irradiance=1 temperature=25 %cutin=20 %cutout=20 effcurve=MyEff P-TCurve=MyPvsT Daily=IRRAD_DIA TDaily=TEMP_DIA
New PVSystem.GD_943a699de5713bc2bcbd740b6b28b8bd6bc3516659f694e11a9a3529eba453ff_1 phases=1 bus1=node_419475603.1.4 conn=wye kv=0.1200 pf=1 pmpp=0.59 kva=0.59 irradiance=1 temperature=25 %cutin=20 %cutout=20 effcurve=MyEff P-TCurve=MyPvsT Daily=IRRAD_DIA TDaily=TEMP_DIA
New PVSystem.GD_943a699de5713bc2bcbd740b6b28b8bd6bc3516659f694e11a9a3529eba453ff_2 phases=1 bus1=node_419475603.2.4 conn=wye kv=0.1200 pf=1 pmpp=0.59 kva=0.59 irradiance=1 temperature=25 %cutin=20 %cutout=20 effcurve=MyEff P-TCurve=MyPvsT Daily=IRRAD_DIA TDaily=TEMP_DIA
New PVSystem.GD_15f0ebbdbe00bd4991aeafb3786e06d731e3e4216cfa6a33c510a881012475cb_1 phases=1 bus1=node_418071812.1.4 conn=wye kv=0.1270 pf=1 pmpp=0.29 kva=0.29 irradiance=1 temperature=25 %cutin=20 %cutout=20 effcurve=MyEff P-TCurve=MyPvsT Daily=IRRAD_DIA TDaily=TEMP_DIA
New PVSystem.GD_15f0ebbdbe00bd4991aeafb3786e06d731e3e4216cfa6a33c510a881012475cb_2 phases=1 bus1=node_418071812.2.4 conn=wye kv=0.1270 pf=1 pmpp=0.29 kva=0.29 irradiance=1 temperature=25 %cutin=20 %cutout=20 effcurve=MyEff P-TCurve=MyPvsT Daily=IRRAD_DIA TDaily=TEMP_DIA
New PVSystem.GD_15f0ebbdbe00bd4991aeafb3786e06d731e3e4216cfa6a33c510a881012475cb_3 phases=1 bus1=node_418071812.3.4 conn=wye kv=0.1270 pf=1 pmpp=0.29 kva=0.29 irradiance=1 temperature=25 %cutin=20 %cutout=20 effcurve=MyEff P-TCurve=MyPvsT Daily=IRRAD_DIA TDaily=TEMP_DIA
New PVSystem.GD_d64d7aa972dda7b55822745b8b45e5b3fa78e82e807cb0de38f169aa7976498c_1 phases=1 bus1=node_418071812.1.4 conn=wye kv=0.1270 pf=1 pmpp=0.48 kva=0.48 irradiance=1 temperature=25 %cutin=20 %cutout=20 effcurve=MyEff P-TCurve=MyPvsT Daily=IRRAD_DIA TDaily=TEMP_DIA
New PVSystem.GD_d64d7aa972dda7b55822745b8b45e5b3fa78e82e807cb0de38f169aa7976498c_2 phases=1 bus1=node_418071812.2.4 conn=wye kv=0.1270 pf=1 pmpp=0.48 kva=0.48 irradiance=1 temperature=25 %cutin=20 %cutout=20 effcurve=MyEff P-TCurve=MyPvsT Daily=IRRAD_DIA TDaily=TEMP_DIA
New PVSystem.GD_d64d7aa972dda7b55822745b8b45e5b3fa78e82e807cb0de38f169aa7976498c_3 phases=1 bus1=node_418071812.3.4 conn=wye kv=0.1270 pf=1 pmpp=0.48 kva=0.48 irradiance=1 temperature=25 %cutin=20 %cutout=20 effcurve=MyEff P-TCurve=MyPvsT Daily=IRRAD_DIA TDaily=TEMP_DIA
New PVSystem.GD_40c777087ab5938dbfc4a10486c23175a0dd8fe89a16e332b23104ae63911ece_1 phases=1 bus1=node_458642303.1.4 conn=wye kv=0.1270 pf=1 pmpp=0.49 kva=0.49 irradiance=1 temperature=25 %cutin=20 %cutout=20 effcurve=MyEff P-TCurve=MyPvsT Daily=IRRAD_DIA TDaily=TEMP_DIA
New PVSystem.GD_40c777087ab5938dbfc4a10486c23175a0dd8fe89a16e332b23104ae63911ece_2 phases=1 bus1=node_458642303.2.4 conn=wye kv=0.1270 pf=1 pmpp=0.49 kva=0.49 irradiance=1 temperature=25 %cutin=20 %cutout=20 effcurve=MyEff P-TCurve=MyPvsT Daily=IRRAD_DIA TDaily=TEMP_DIA
New PVSystem.GD_40c777087ab5938dbfc4a10486c23175a0dd8fe89a16e332b23104ae63911ece_3 phases=1 bus1=node_458642303.3.4 conn=wye kv=0.1270 pf=1 pmpp=0.49 kva=0.49 irradiance=1 temperature=25 %cutin=20 %cutout=20 effcurve=MyEff P-TCurve=MyPvsT Daily=IRRAD_DIA TDaily=TEMP_DIA
New PVSystem.GD_414e4fd26d165dce03d65f6d3c1b4c539a2cccdcfdf89f13e1cbdf29408ce329_1 phases=1 bus1=node_458642303.1.4 conn=wye kv=0.1270 pf=1 pmpp=0.32 kva=0.32 irradiance=1 temperature=25 %cutin=20 %cutout=20 effcurve=MyEff P-TCurve=MyPvsT Daily=IRRAD_DIA TDaily=TEMP_DIA
New PVSystem.GD_414e4fd26d165dce03d65f6d3c1b4c539a2cccdcfdf89f13e1cbdf29408ce329_2 phases=1 bus1=node_458642303.2.4 conn=wye kv=0.1270 pf=1 pmpp=0.32 kva=0.32 irradiance=1 temperature=25 %cutin=20 %cutout=20 effcurve=MyEff P-TCurve=MyPvsT Daily=IRRAD_DIA TDaily=TEMP_DIA
New PVSystem.GD_414e4fd26d165dce03d65f6d3c1b4c539a2cccdcfdf89f13e1cbdf29408ce329_3 phases=1 bus1=node_458642303.3.4 conn=wye kv=0.1270 pf=1 pmpp=0.32 kva=0.32 irradiance=1 temperature=25 %cutin=20 %cutout=20 effcurve=MyEff P-TCurve=MyPvsT Daily=IRRAD_DIA TDaily=TEMP_DIA
New PVSystem.GD_1c8cfb77ebd56e725c6f9a94e5583b35e5a4715ce67e82c3bedd558899d9f36f_1 phases=1 bus1=node_418080036.1.4 conn=wye kv=0.1270 pf=1 pmpp=0.62 kva=0.62 irradiance=1 temperature=25 %cutin=20 %cutout=20 effcurve=MyEff P-TCurve=MyPvsT Daily=IRRAD_DIA TDaily=TEMP_DIA
New PVSystem.GD_1c8cfb77ebd56e725c6f9a94e5583b35e5a4715ce67e82c3bedd558899d9f36f_2 phases=1 bus1=node_418080036.2.4 conn=wye kv=0.1270 pf=1 pmpp=0.62 kva=0.62 irradiance=1 temperature=25 %cutin=20 %cutout=20 effcurve=MyEff P-TCurve=MyPvsT Daily=IRRAD_DIA TDaily=TEMP_DIA
New PVSystem.GD_1c8cfb77ebd56e725c6f9a94e5583b35e5a4715ce67e82c3bedd558899d9f36f_3 phases=1 bus1=node_418080036.3.4 conn=wye kv=0.1270 pf=1 pmpp=0.62 kva=0.62 irradiance=1 temperature=25 %cutin=20 %cutout=20 effcurve=MyEff P-TCurve=MyPvsT Daily=IRRAD_DIA TDaily=TEMP_DIA
New PVSystem.GD_0e16a68c6ec59968ca02d07cff67e6b3cdfb1b39d7f403f86513fb79f4cb3ea9_1 phases=1 bus1=node_418104810.1.4 conn=wye kv=0.1270 pf=1 pmpp=0.53 kva=0.53 irradiance=1 temperature=25 %cutin=20 %cutout=20 effcurve=MyEff P-TCurve=MyPvsT Daily=IRRAD_DIA TDaily=TEMP_DIA
New PVSystem.GD_0e16a68c6ec59968ca02d07cff67e6b3cdfb1b39d7f403f86513fb79f4cb3ea9_2 phases=1 bus1=node_418104810.2.4 conn=wye kv=0.1270 pf=1 pmpp=0.53 kva=0.53 irradiance=1 temperature=25 %cutin=20 %cutout=20 effcurve=MyEff P-TCurve=MyPvsT Daily=IRRAD_DIA TDaily=TEMP_DIA
New PVSystem.GD_0e16a68c6ec59968ca02d07cff67e6b3cdfb1b39d7f403f86513fb79f4cb3ea9_3 phases=1 bus1=node_418104810.3.4 conn=wye kv=0.1270 pf=1 pmpp=0.53 kva=0.53 irradiance=1 temperature=25 %cutin=20 %cutout=20 effcurve=MyEff P-TCurve=MyPvsT Daily=IRRAD_DIA TDaily=TEMP_DIA
New PVSystem.GD_232e8d448d1e2113afcedc33d98f10275905e279c5915e87f90d8dd07432bf7a_1 phases=1 bus1=node_418104810.1.4 conn=wye kv=0.1270 pf=1 pmpp=0.25 kva=0.25 irradiance=1 temperature=25 %cutin=20 %cutout=20 effcurve=MyEff P-TCurve=MyPvsT Daily=IRRAD_DIA TDaily=TEMP_DIA
New PVSystem.GD_232e8d448d1e2113afcedc33d98f10275905e279c5915e87f90d8dd07432bf7a_2 phases=1 bus1=node_418104810.2.4 conn=wye kv=0.1270 pf=1 pmpp=0.25 kva=0.25 irradiance=1 temperature=25 %cutin=20 %cutout=20 effcurve=MyEff P-TCurve=MyPvsT Daily=IRRAD_DIA TDaily=TEMP_DIA
New PVSystem.GD_232e8d448d1e2113afcedc33d98f10275905e279c5915e87f90d8dd07432bf7a_3 phases=1 bus1=node_418104810.3.4 conn=wye kv=0.1270 pf=1 pmpp=0.25 kva=0.25 irradiance=1 temperature=25 %cutin=20 %cutout=20 effcurve=MyEff P-TCurve=MyPvsT Daily=IRRAD_DIA TDaily=TEMP_DIA
New PVSystem.GD_3f8a21d569ce1dd5e9f464036c5f47d824c6c7ca95fe33e2734659b92fc38911_1 phases=1 bus1=node_418097810.1.4 conn=wye kv=0.1270 pf=1 pmpp=0.32 kva=0.32 irradiance=1 temperature=25 %cutin=20 %cutout=20 effcurve=MyEff P-TCurve=MyPvsT Daily=IRRAD_DIA TDaily=TEMP_DIA
New PVSystem.GD_3f8a21d569ce1dd5e9f464036c5f47d824c6c7ca95fe33e2734659b92fc38911_2 phases=1 bus1=node_418097810.2.4 conn=wye kv=0.1270 pf=1 pmpp=0.32 kva=0.32 irradiance=1 temperature=25 %cutin=20 %cutout=20 effcurve=MyEff P-TCurve=MyPvsT Daily=IRRAD_DIA TDaily=TEMP_DIA
New PVSystem.GD_3f8a21d569ce1dd5e9f464036c5f47d824c6c7ca95fe33e2734659b92fc38911_3 phases=1 bus1=node_418097810.3.4 conn=wye kv=0.1270 pf=1 pmpp=0.32 kva=0.32 irradiance=1 temperature=25 %cutin=20 %cutout=20 effcurve=MyEff P-TCurve=MyPvsT Daily=IRRAD_DIA TDaily=TEMP_DIA
New PVSystem.GD_e7177bf0cf17130612f8adca6be0e501c3b7b9058b57b531d6ccb2ed8f33e451_1 phases=1 bus1=node_418097810.1.4 conn=wye kv=0.1270 pf=1 pmpp=4.44 kva=4.44 irradiance=1 temperature=25 %cutin=20 %cutout=20 effcurve=MyEff P-TCurve=MyPvsT Daily=IRRAD_DIA TDaily=TEMP_DIA
New PVSystem.GD_e7177bf0cf17130612f8adca6be0e501c3b7b9058b57b531d6ccb2ed8f33e451_2 phases=1 bus1=node_418097810.2.4 conn=wye kv=0.1270 pf=1 pmpp=4.44 kva=4.44 irradiance=1 temperature=25 %cutin=20 %cutout=20 effcurve=MyEff P-TCurve=MyPvsT Daily=IRRAD_DIA TDaily=TEMP_DIA
New PVSystem.GD_e7177bf0cf17130612f8adca6be0e501c3b7b9058b57b531d6ccb2ed8f33e451_3 phases=1 bus1=node_418097810.3.4 conn=wye kv=0.1270 pf=1 pmpp=4.44 kva=4.44 irradiance=1 temperature=25 %cutin=20 %cutout=20 effcurve=MyEff P-TCurve=MyPvsT Daily=IRRAD_DIA TDaily=TEMP_DIA
New PVSystem.GD_e9f756ba46260549083df59d91c1349ec49bd31f31fec37b929c07d91ac90aa4_1 phases=1 bus1=node_418111429.1.4 conn=wye kv=0.1270 pf=1 pmpp=0.54 kva=0.54 irradiance=1 temperature=25 %cutin=20 %cutout=20 effcurve=MyEff P-TCurve=MyPvsT Daily=IRRAD_DIA TDaily=TEMP_DIA
New PVSystem.GD_e9f756ba46260549083df59d91c1349ec49bd31f31fec37b929c07d91ac90aa4_2 phases=1 bus1=node_418111429.2.4 conn=wye kv=0.1270 pf=1 pmpp=0.54 kva=0.54 irradiance=1 temperature=25 %cutin=20 %cutout=20 effcurve=MyEff P-TCurve=MyPvsT Daily=IRRAD_DIA TDaily=TEMP_DIA
New PVSystem.GD_e9f756ba46260549083df59d91c1349ec49bd31f31fec37b929c07d91ac90aa4_3 phases=1 bus1=node_418111429.3.4 conn=wye kv=0.1270 pf=1 pmpp=0.54 kva=0.54 irradiance=1 temperature=25 %cutin=20 %cutout=20 effcurve=MyEff P-TCurve=MyPvsT Daily=IRRAD_DIA TDaily=TEMP_DIA
New PVSystem.GD_1aed1520a230e711c3c5a54eadde79c7a4d6fd567730f02325980111804c456f_1 phases=1 bus1=node_418070513.1.4 conn=wye kv=0.1200 pf=1 pmpp=0.23 kva=0.23 irradiance=1 temperature=25 %cutin=20 %cutout=20 effcurve=MyEff P-TCurve=MyPvsT Daily=IRRAD_DIA TDaily=TEMP_DIA
New PVSystem.GD_1aed1520a230e711c3c5a54eadde79c7a4d6fd567730f02325980111804c456f_2 phases=1 bus1=node_418070513.2.4 conn=wye kv=0.1200 pf=1 pmpp=0.23 kva=0.23 irradiance=1 temperature=25 %cutin=20 %cutout=20 effcurve=MyEff P-TCurve=MyPvsT Daily=IRRAD_DIA TDaily=TEMP_DIA
New PVSystem.GD_8e56caa5c9c6fe434d5a79d31556609e5072b33188d4b3c7ad4386ea22034def_1 phases=1 bus1=node_418111192.1.4 conn=wye kv=0.1270 pf=1 pmpp=1.09 kva=1.09 irradiance=1 temperature=25 %cutin=20 %cutout=20 effcurve=MyEff P-TCurve=MyPvsT Daily=IRRAD_DIA TDaily=TEMP_DIA
New PVSystem.GD_8e56caa5c9c6fe434d5a79d31556609e5072b33188d4b3c7ad4386ea22034def_2 phases=1 bus1=node_418111192.2.4 conn=wye kv=0.1270 pf=1 pmpp=1.09 kva=1.09 irradiance=1 temperature=25 %cutin=20 %cutout=20 effcurve=MyEff P-TCurve=MyPvsT Daily=IRRAD_DIA TDaily=TEMP_DIA
New PVSystem.GD_8e56caa5c9c6fe434d5a79d31556609e5072b33188d4b3c7ad4386ea22034def_3 phases=1 bus1=node_418111192.3.4 conn=wye kv=0.1270 pf=1 pmpp=1.09 kva=1.09 irradiance=1 temperature=25 %cutin=20 %cutout=20 effcurve=MyEff P-TCurve=MyPvsT Daily=IRRAD_DIA TDaily=TEMP_DIA
New PVSystem.GD_8f868f5c8685b1c413082499d7566b1a5065be7ccac4f7244dc9fd8288422afb_1 phases=1 bus1=node_418111192.1.4 conn=wye kv=0.1270 pf=1 pmpp=0.53 kva=0.53 irradiance=1 temperature=25 %cutin=20 %cutout=20 effcurve=MyEff P-TCurve=MyPvsT Daily=IRRAD_DIA TDaily=TEMP_DIA
New PVSystem.GD_8f868f5c8685b1c413082499d7566b1a5065be7ccac4f7244dc9fd8288422afb_2 phases=1 bus1=node_418111192.2.4 conn=wye kv=0.1270 pf=1 pmpp=0.53 kva=0.53 irradiance=1 temperature=25 %cutin=20 %cutout=20 effcurve=MyEff P-TCurve=MyPvsT Daily=IRRAD_DIA TDaily=TEMP_DIA
New PVSystem.GD_8f868f5c8685b1c413082499d7566b1a5065be7ccac4f7244dc9fd8288422afb_3 phases=1 bus1=node_418111192.3.4 conn=wye kv=0.1270 pf=1 pmpp=0.53 kva=0.53 irradiance=1 temperature=25 %cutin=20 %cutout=20 effcurve=MyEff P-TCurve=MyPvsT Daily=IRRAD_DIA TDaily=TEMP_DIA
New PVSystem.GD_f5d0c63c1de87b71ff4b645f364a3d1e1c7f8b1dd5191df0124cd01a1955c1e1_1 phases=1 bus1=node_418111192.1.4 conn=wye kv=0.1270 pf=1 pmpp=0.87 kva=0.87 irradiance=1 temperature=25 %cutin=20 %cutout=20 effcurve=MyEff P-TCurve=MyPvsT Daily=IRRAD_DIA TDaily=TEMP_DIA
New PVSystem.GD_f5d0c63c1de87b71ff4b645f364a3d1e1c7f8b1dd5191df0124cd01a1955c1e1_2 phases=1 bus1=node_418111192.2.4 conn=wye kv=0.1270 pf=1 pmpp=0.87 kva=0.87 irradiance=1 temperature=25 %cutin=20 %cutout=20 effcurve=MyEff P-TCurve=MyPvsT Daily=IRRAD_DIA TDaily=TEMP_DIA
New PVSystem.GD_f5d0c63c1de87b71ff4b645f364a3d1e1c7f8b1dd5191df0124cd01a1955c1e1_3 phases=1 bus1=node_418111192.3.4 conn=wye kv=0.1270 pf=1 pmpp=0.87 kva=0.87 irradiance=1 temperature=25 %cutin=20 %cutout=20 effcurve=MyEff P-TCurve=MyPvsT Daily=IRRAD_DIA TDaily=TEMP_DIA
New PVSystem.GD_0f73f4bea2e6bc4964e74a9f6237f4d689a931f72b10207244f3578d28721352_1 phases=1 bus1=node_418111192.1.4 conn=wye kv=0.1270 pf=1 pmpp=0.51 kva=0.51 irradiance=1 temperature=25 %cutin=20 %cutout=20 effcurve=MyEff P-TCurve=MyPvsT Daily=IRRAD_DIA TDaily=TEMP_DIA
New PVSystem.GD_0f73f4bea2e6bc4964e74a9f6237f4d689a931f72b10207244f3578d28721352_2 phases=1 bus1=node_418111192.2.4 conn=wye kv=0.1270 pf=1 pmpp=0.51 kva=0.51 irradiance=1 temperature=25 %cutin=20 %cutout=20 effcurve=MyEff P-TCurve=MyPvsT Daily=IRRAD_DIA TDaily=TEMP_DIA
New PVSystem.GD_0f73f4bea2e6bc4964e74a9f6237f4d689a931f72b10207244f3578d28721352_3 phases=1 bus1=node_418111192.3.4 conn=wye kv=0.1270 pf=1 pmpp=0.51 kva=0.51 irradiance=1 temperature=25 %cutin=20 %cutout=20 effcurve=MyEff P-TCurve=MyPvsT Daily=IRRAD_DIA TDaily=TEMP_DIA
New PVSystem.GD_bc0bf55c51c630d9ae19d89a558c80d0ff7cc7526207d9692118aabe597e6f29_1 phases=1 bus1=node_418111192.1.4 conn=wye kv=0.1270 pf=1 pmpp=0.92 kva=0.92 irradiance=1 temperature=25 %cutin=20 %cutout=20 effcurve=MyEff P-TCurve=MyPvsT Daily=IRRAD_DIA TDaily=TEMP_DIA
New PVSystem.GD_bc0bf55c51c630d9ae19d89a558c80d0ff7cc7526207d9692118aabe597e6f29_2 phases=1 bus1=node_418111192.2.4 conn=wye kv=0.1270 pf=1 pmpp=0.92 kva=0.92 irradiance=1 temperature=25 %cutin=20 %cutout=20 effcurve=MyEff P-TCurve=MyPvsT Daily=IRRAD_DIA TDaily=TEMP_DIA
New PVSystem.GD_bc0bf55c51c630d9ae19d89a558c80d0ff7cc7526207d9692118aabe597e6f29_3 phases=1 bus1=node_418111192.3.4 conn=wye kv=0.1270 pf=1 pmpp=0.92 kva=0.92 irradiance=1 temperature=25 %cutin=20 %cutout=20 effcurve=MyEff P-TCurve=MyPvsT Daily=IRRAD_DIA TDaily=TEMP_DIA
New PVSystem.GD_f575953c9eba41a04a3a17fc20808692805e11afd9344e79fb1408902d1f9a6e_1 phases=1 bus1=node_418111192.1.4 conn=wye kv=0.1270 pf=1 pmpp=0.61 kva=0.61 irradiance=1 temperature=25 %cutin=20 %cutout=20 effcurve=MyEff P-TCurve=MyPvsT Daily=IRRAD_DIA TDaily=TEMP_DIA
New PVSystem.GD_f575953c9eba41a04a3a17fc20808692805e11afd9344e79fb1408902d1f9a6e_2 phases=1 bus1=node_418111192.2.4 conn=wye kv=0.1270 pf=1 pmpp=0.61 kva=0.61 irradiance=1 temperature=25 %cutin=20 %cutout=20 effcurve=MyEff P-TCurve=MyPvsT Daily=IRRAD_DIA TDaily=TEMP_DIA
New PVSystem.GD_f575953c9eba41a04a3a17fc20808692805e11afd9344e79fb1408902d1f9a6e_3 phases=1 bus1=node_418111192.3.4 conn=wye kv=0.1270 pf=1 pmpp=0.61 kva=0.61 irradiance=1 temperature=25 %cutin=20 %cutout=20 effcurve=MyEff P-TCurve=MyPvsT Daily=IRRAD_DIA TDaily=TEMP_DIA
New PVSystem.GD_8a291ae250a9c466ee8332572b4f548a00746aba557b8cd15bd07f09a9e89e9b_1 phases=1 bus1=node_418114297.1.4 conn=wye kv=0.1270 pf=1 pmpp=1.16 kva=1.16 irradiance=1 temperature=25 %cutin=20 %cutout=20 effcurve=MyEff P-TCurve=MyPvsT Daily=IRRAD_DIA TDaily=TEMP_DIA
New PVSystem.GD_8a291ae250a9c466ee8332572b4f548a00746aba557b8cd15bd07f09a9e89e9b_2 phases=1 bus1=node_418114297.2.4 conn=wye kv=0.1270 pf=1 pmpp=1.16 kva=1.16 irradiance=1 temperature=25 %cutin=20 %cutout=20 effcurve=MyEff P-TCurve=MyPvsT Daily=IRRAD_DIA TDaily=TEMP_DIA
New PVSystem.GD_8a291ae250a9c466ee8332572b4f548a00746aba557b8cd15bd07f09a9e89e9b_3 phases=1 bus1=node_418114297.3.4 conn=wye kv=0.1270 pf=1 pmpp=1.16 kva=1.16 irradiance=1 temperature=25 %cutin=20 %cutout=20 effcurve=MyEff P-TCurve=MyPvsT Daily=IRRAD_DIA TDaily=TEMP_DIA
New PVSystem.GD_d4a7a88ed82dcc8c8d38128ffbbbb5597a7a91e1428b67172a8c341a27e47af5_1 phases=1 bus1=node_458839333.1.4 conn=wye kv=0.1270 pf=1 pmpp=0.43 kva=0.43 irradiance=1 temperature=25 %cutin=20 %cutout=20 effcurve=MyEff P-TCurve=MyPvsT Daily=IRRAD_DIA TDaily=TEMP_DIA
New PVSystem.GD_d4a7a88ed82dcc8c8d38128ffbbbb5597a7a91e1428b67172a8c341a27e47af5_2 phases=1 bus1=node_458839333.2.4 conn=wye kv=0.1270 pf=1 pmpp=0.43 kva=0.43 irradiance=1 temperature=25 %cutin=20 %cutout=20 effcurve=MyEff P-TCurve=MyPvsT Daily=IRRAD_DIA TDaily=TEMP_DIA
New PVSystem.GD_d4a7a88ed82dcc8c8d38128ffbbbb5597a7a91e1428b67172a8c341a27e47af5_3 phases=1 bus1=node_458839333.3.4 conn=wye kv=0.1270 pf=1 pmpp=0.43 kva=0.43 irradiance=1 temperature=25 %cutin=20 %cutout=20 effcurve=MyEff P-TCurve=MyPvsT Daily=IRRAD_DIA TDaily=TEMP_DIA
New PVSystem.GD_762c1e9ac739f59b028a80457b30d7f88af761abe217d3f39df3f3c2d8e80b8b_1 phases=1 bus1=node_458839333.1.4 conn=wye kv=0.1270 pf=1 pmpp=0.41 kva=0.41 irradiance=1 temperature=25 %cutin=20 %cutout=20 effcurve=MyEff P-TCurve=MyPvsT Daily=IRRAD_DIA TDaily=TEMP_DIA
New PVSystem.GD_762c1e9ac739f59b028a80457b30d7f88af761abe217d3f39df3f3c2d8e80b8b_2 phases=1 bus1=node_458839333.2.4 conn=wye kv=0.1270 pf=1 pmpp=0.41 kva=0.41 irradiance=1 temperature=25 %cutin=20 %cutout=20 effcurve=MyEff P-TCurve=MyPvsT Daily=IRRAD_DIA TDaily=TEMP_DIA
New PVSystem.GD_762c1e9ac739f59b028a80457b30d7f88af761abe217d3f39df3f3c2d8e80b8b_3 phases=1 bus1=node_458839333.3.4 conn=wye kv=0.1270 pf=1 pmpp=0.41 kva=0.41 irradiance=1 temperature=25 %cutin=20 %cutout=20 effcurve=MyEff P-TCurve=MyPvsT Daily=IRRAD_DIA TDaily=TEMP_DIA
New PVSystem.GD_7578d1bac5528b6c9f09f7fb9d4ed6e7c7ba42d2a6d2cc9af791967baef054fe_1 phases=1 bus1=node_418077387.1.4 conn=wye kv=0.1270 pf=1 pmpp=0.46 kva=0.46 irradiance=1 temperature=25 %cutin=20 %cutout=20 effcurve=MyEff P-TCurve=MyPvsT Daily=IRRAD_DIA TDaily=TEMP_DIA
New PVSystem.GD_7578d1bac5528b6c9f09f7fb9d4ed6e7c7ba42d2a6d2cc9af791967baef054fe_2 phases=1 bus1=node_418077387.2.4 conn=wye kv=0.1270 pf=1 pmpp=0.46 kva=0.46 irradiance=1 temperature=25 %cutin=20 %cutout=20 effcurve=MyEff P-TCurve=MyPvsT Daily=IRRAD_DIA TDaily=TEMP_DIA
New PVSystem.GD_7578d1bac5528b6c9f09f7fb9d4ed6e7c7ba42d2a6d2cc9af791967baef054fe_3 phases=1 bus1=node_418077387.3.4 conn=wye kv=0.1270 pf=1 pmpp=0.46 kva=0.46 irradiance=1 temperature=25 %cutin=20 %cutout=20 effcurve=MyEff P-TCurve=MyPvsT Daily=IRRAD_DIA TDaily=TEMP_DIA
New PVSystem.GD_147798261487709dbb38ded0073964f121dfa86fa20ef1cbbc8a017aff356efc_1 phases=1 bus1=node_418077387.1.4 conn=wye kv=0.1270 pf=1 pmpp=2.80 kva=2.80 irradiance=1 temperature=25 %cutin=20 %cutout=20 effcurve=MyEff P-TCurve=MyPvsT Daily=IRRAD_DIA TDaily=TEMP_DIA
New PVSystem.GD_147798261487709dbb38ded0073964f121dfa86fa20ef1cbbc8a017aff356efc_2 phases=1 bus1=node_418077387.2.4 conn=wye kv=0.1270 pf=1 pmpp=2.80 kva=2.80 irradiance=1 temperature=25 %cutin=20 %cutout=20 effcurve=MyEff P-TCurve=MyPvsT Daily=IRRAD_DIA TDaily=TEMP_DIA
...
